FoamFile
{
	version	2.0;
	format	ascii;
	class dictionary;
	object	setFieldsDict;
}

defaultFieldValues
(
	volScalarFieldValue	sigma	61000
);

regions
(
	boxToCell
	{
		box (-0.5 -0.5 0.009) (0.5 0.5 0.011);
		fieldValues
		(
			volScalarFieldValue	sigma	610 // something with low conductivity
		);
	}
);

